%RWF=/home/daniele/PSI4_sctatch/Gau-biphenyl/,100GB
%Nosave
%Chk=biphenyl-dma_temp.chk
%Mem=700MB
%Nproc=3
#P MP2/6-311G** Sp Density=MP2 MaxDisk=100GB 

biphenyl Gaussian SP Calculation on daniele-Precision-5750

0 1
 C    0.735094    0.048975   -0.025944
 C   -0.735033   -0.050083    0.028220
 C    1.355066    1.075598   -0.752865
 C   -1.389955   -0.306942    1.241270
 C    1.539573   -0.882445    0.645911
 C   -1.504580    0.113188   -1.132643
 C    2.744487    1.166925   -0.806927
 C   -2.779423   -0.401848    1.290942
 C    2.928993   -0.787250    0.595175
 C   -2.894249    0.022961   -1.081130
 C    3.536529    0.237146   -0.131873
 C   -3.536392   -0.236539    0.130424
 H    0.739852    1.819576   -1.254983
 H   -0.805267   -0.404088    2.153145
 H    1.070087   -1.701065    1.186805
 H   -1.005323    0.285495   -2.083688
 H    3.209409    1.972413   -1.370219
 H   -3.272700   -0.595397    2.240189
 H    3.538912   -1.521025    1.116605
 H   -3.476140    0.146082   -1.991169
 H    4.620130    0.310137   -0.173279
 H   -4.620272   -0.308370    0.169929



