%RWF=/home/daniele/PSI4_sctatch/Gau-butane/,100GB
%Nosave
%Chk=butane-dma_temp.chk
%Mem=700MB
%Nproc=8
#P MP2/6-311G** Sp Density=MP2 MaxDisk=100GB 

butane Gaussian SP Calculation on daniele-Precision-5750

0 1
 C   -0.437568   -0.574870    0.243881
 C    0.437679    0.574512   -0.244679
 C   -1.919243   -0.352884   -0.038585
 C    1.919144    0.353216    0.039327
 H   -0.283737   -0.710066    1.321551
 H   -0.106485   -1.505676   -0.232850
 H    0.105973    1.505489    0.231344
 H    0.284683    0.709132   -1.322560
 H   -2.099259   -0.246681   -1.112496
 H   -2.276792    0.558004    0.450724
 H   -2.526277   -1.187817    0.322252
 H    2.278265   -0.555565   -0.452725
 H    2.097646    0.243376    1.113155
 H    2.525846    1.190107   -0.317729



