%RWF=/home/daniele/PSI4_sctatch/Gau-propbenzene/,100GB
%Nosave
%Chk=propbenzene-dma_temp.chk
%Mem=700MB
%Nproc=8
#P MP2/6-311G** Sp Density=MP2 MaxDisk=100GB 

propbenzene Gaussian SP Calculation on daniele-Precision-5750

0 1
 C   -1.302096   -0.673334    0.636819
 C   -2.343461   -0.049481   -0.296270
 C    0.095342   -0.229680    0.299640
 C   -3.764895   -0.491421    0.034838
 C    0.613965    0.957473    0.828934
 C    0.880358   -0.955922   -0.602779
 C    1.886381    1.403820    0.474724
 C    2.153723   -0.514778   -0.960956
 C    2.659744    0.668802   -0.423961
 H   -1.368834   -1.766641    0.573400
 H   -1.537828   -0.403340    1.674171
 H   -2.263161    1.042354   -0.235229
 H   -2.096657   -0.320488   -1.330279
 H   -4.034229   -0.201319    1.055808
 H   -4.491995   -0.038128   -0.646406
 H   -3.863678   -1.578655   -0.042767
 H    0.016632    1.532181    1.535391
 H    0.491648   -1.883135   -1.021041
 H    2.275805    2.324659    0.901944
 H    2.752241   -1.095903   -1.658321
 H    3.653227    1.013416   -0.699374



