%RWF=/home/daniele/PSI4_sctatch/Gau-aniline/,100GB
%Nosave
%Chk=aniline-dma_temp.chk
%Mem=700MB
%Nproc=8
#P MP2/6-311G** Sp Density=MP2 MaxDisk=100GB 

aniline Gaussian SP Calculation on daniele-Precision-5750

0 1
 N    2.298258    0.281520    0.376198
 C    0.927514    0.117666    0.115126
 C    0.391795   -1.158791   -0.098910
 C    0.058377    1.215207    0.161477
 C   -0.977417   -1.326889   -0.288957
 C   -1.309941    1.040523   -0.028620
 C   -1.838759   -0.230706   -0.251174
 H    1.055858   -2.021011   -0.124619
 H    0.461586    2.210534    0.339562
 H   -1.372370   -2.325368   -0.460389
 H   -1.966711    1.906294    0.005156
 H   -2.906352   -0.364393   -0.399653
 H    2.645596    1.200819    0.123250
 H    2.874695   -0.434482   -0.054065



